Version 4
SHEET 1 912 680
WIRE 480 -80 80 -80
WIRE 608 -80 480 -80
WIRE 608 -32 608 -80
WIRE 80 -16 80 -80
WIRE 608 80 608 48
WIRE 480 96 480 -80
WIRE 80 112 80 64
WIRE 448 112 80 112
WIRE 448 144 288 144
WIRE 80 160 80 112
WIRE 704 192 624 192
WIRE 288 240 288 224
WIRE 448 240 288 240
WIRE 400 272 288 272
WIRE 448 272 400 272
WIRE 80 288 80 240
WIRE 288 320 288 272
WIRE 480 320 480 288
WIRE 400 368 400 272
WIRE 528 368 400 368
WIRE 560 368 560 256
WIRE 560 368 528 368
WIRE 288 448 288 400
FLAG 80 288 0
FLAG 480 320 0
FLAG 704 192 Vout
IOPIN 704 192 Out
FLAG 608 80 0
FLAG 288 448 0
FLAG 80 112 Vplus
FLAG 528 368 Vref
SYMBOL res 64 144 R0
SYMATTR InstName R2
SYMATTR Value {Rprt}
SYMBOL res 64 -32 R0
SYMATTR InstName R1
SYMATTR Value 1kohm
SYMBOL OpAmps\\AD8221 480 192 R0
SYMATTR InstName U1
SYMBOL res 272 128 R0
SYMATTR InstName RG
SYMATTR Value 7.15kohm
SYMBOL voltage 288 304 R0
SYMATTR InstName Vref
SYMATTR Value 2.5V
SYMBOL voltage 608 -48 R0
SYMATTR InstName Vs
SYMATTR Value 5.0V
TEXT 432 408 Left 2 !.op
TEXT 432 440 Left 2 !.step param arg 0 5.76 0.12
TEXT 432 472 Left 2 !.param Rprt=1000*(1.1-(0.04)*sin(arg))
